data_image0
_cell_length_a       17.0774
_cell_length_b       12.5945
_cell_length_c       17.0774
_cell_angle_alpha    90.0219
_cell_angle_beta     90.0156
_cell_angle_gamma    90.0163

_symmetry_space_group_name_H-M    "P 1"
_symmetry_int_tables_number       1

loop_
  _symmetry_equiv_pos_as_xyz
  'x, y, z'

loop_
  _atom_site_label
  _atom_site_occupancy
  _atom_site_fract_x
  _atom_site_fract_y
  _atom_site_fract_z
  _atom_site_thermal_displace_type
  _atom_site_B_iso_or_equiv
  _atom_site_type_symbol
  Zn1      1.0000 0.20006  0.57625  0.44387  Biso   1.000  Zn
  Zn2      1.0000 0.19999  0.39825  0.31262  Biso   1.000  Zn
  Zn3      1.0000 0.06880  0.57622  0.31262  Biso   1.000  Zn
  Zn4      1.0000 0.06878  0.39831  0.44384  Biso   1.000  Zn
  O1       1.0000 0.13441  0.48726  0.37824  Biso   1.000  O
  O2       1.0000 0.30990  0.55263  0.42647  Biso   1.000  O
  O3       1.0000 0.18257  0.42182  0.20277  Biso   1.000  O
  O4       1.0000 0.08625  0.72517  0.33004  Biso   1.000  O
  O5       1.0000 0.30985  0.42186  0.33004  Biso   1.000  O
  O6       1.0000 0.18269  0.72519  0.42647  Biso   1.000  O
  O7       1.0000 0.08619  0.55257  0.20277  Biso   1.000  O
  O8       1.0000 0.95895  0.55263  0.33002  Biso   1.000  O
  O9       1.0000 0.08621  0.42196  0.55369  Biso   1.000  O
  O10      1.0000 0.95893  0.42192  0.42642  Biso   1.000  O
  O11      1.0000 0.18267  0.55269  0.55371  Biso   1.000  O
  O12      1.0000 0.18255  0.24932  0.33001  Biso   1.000  O
  O13      1.0000 0.08614  0.24936  0.42642  Biso   1.000  O
  C1       1.0000 0.93046  0.48728  0.37822  Biso   1.000  C
  C2       1.0000 0.84321  0.48726  0.37823  Biso   1.000  C
  C3       1.0000 0.80223  0.41910  0.42834  Biso   1.000  C
  C4       1.0000 0.72025  0.41910  0.42836  Biso   1.000  C
  C5       1.0000 0.67925  0.48725  0.37825  Biso   1.000  C
  C6       1.0000 0.72024  0.55542  0.32812  Biso   1.000  C
  C7       1.0000 0.80222  0.55543  0.32812  Biso   1.000  C
  C8       1.0000 0.54937  0.55540  0.32814  Biso   1.000  C
  C9       1.0000 0.46738  0.55539  0.32815  Biso   1.000  C
  C10      1.0000 0.46740  0.41907  0.42838  Biso   1.000  C
  C11      1.0000 0.54938  0.41908  0.42838  Biso   1.000  C
  C12      1.0000 0.59036  0.48724  0.37825  Biso   1.000  C
  C13      1.0000 0.13436  0.21072  0.37823  Biso   1.000  C
  C14      1.0000 0.13441  0.09241  0.37825  Biso   1.000  C
  C15      1.0000 0.08197  0.02315  0.43065  Biso   1.000  C
  C16      1.0000 0.06285  0.95229  0.35903  Biso   1.000  C
  C17      1.0000 0.15360  0.95247  0.44989  Biso   1.000  C
  C18      1.0000 0.11525  0.02311  0.30659  Biso   1.000  C
  C19      1.0000 0.20603  0.02330  0.39750  Biso   1.000  C
  C20      1.0000 0.18694  0.95248  0.32583  Biso   1.000  C
  C21      1.0000 0.33915  0.48724  0.37826  Biso   1.000  C
  C22      1.0000 0.42640  0.48723  0.37827  Biso   1.000  C
  C23      1.0000 0.13444  0.48733  0.58298  Biso   1.000  C
  C24      1.0000 0.13446  0.48736  0.67023  Biso   1.000  C
  C25      1.0000 0.13448  0.76488  0.37826  Biso   1.000  C
  C26      1.0000 0.13451  0.88319  0.37827  Biso   1.000  C
  C27      1.0000 0.13442  0.48726  0.17429  Biso   1.000  C
  C28      1.0000 0.13456  0.48753  0.08704  Biso   1.000  C
  C29      1.0000 0.18477  0.55558  0.04606  Biso   1.000  C
  C30      1.0000 0.18475  0.55554  0.96408  Biso   1.000  C
  C31      1.0000 0.13452  0.48746  0.92308  Biso   1.000  C
  C32      1.0000 0.08431  0.41941  0.96407  Biso   1.000  C
  C33      1.0000 0.08433  0.41944  0.04605  Biso   1.000  C
  C34      1.0000 0.08427  0.41935  0.79320  Biso   1.000  C
  C35      1.0000 0.08425  0.41932  0.71121  Biso   1.000  C
  C36      1.0000 0.18469  0.55545  0.71123  Biso   1.000  C
  C37      1.0000 0.18471  0.55548  0.79321  Biso   1.000  C
  C38      1.0000 0.13450  0.48743  0.83419  Biso   1.000  C
  H1       1.0000 0.43400  0.61090  0.28735  Biso   1.000  H
  H2       1.0000 0.00233  0.92107  0.34276  Biso   1.000  H
  H3       1.0000 0.83558  0.61094  0.28731  Biso   1.000  H
  H4       1.0000 0.04342  0.36398  0.93068  Biso   1.000  H
  H5       1.0000 0.03754  0.05417  0.47490  Biso   1.000  H
  H6       1.0000 0.09899  0.05401  0.24599  Biso   1.000  H
  H7       1.0000 0.23133  0.92165  0.28147  Biso   1.000  H
  O14      1.0000 0.58905  0.62164  0.27937  Biso   1.000  O
  C39      1.0000 0.53529  0.68181  0.23516  Biso   1.000  C
  H8       1.0000 0.47684  0.63822  0.23240  Biso   1.000  H
  H9       1.0000 0.52660  0.76260  0.26399  Biso   1.000  H
  C40      1.0000 0.63904  0.75082  0.15501  Biso   1.000  C
  C41      1.0000 0.56725  0.69728  0.15162  Biso   1.000  C
  H10      1.0000 0.65876  0.76037  0.10348  Biso   1.000  H
  H11      1.0000 0.67526  0.71029  0.18480  Biso   1.000  H
  H12      1.0000 0.63179  0.81814  0.17905  Biso   1.000  H
  H13      1.0000 0.57451  0.62995  0.12759  Biso   1.000  H
  H14      1.0000 0.53103  0.73780  0.12182  Biso   1.000  H
  O15      1.0000 0.27819  0.06050  0.41708  Biso   1.000  O
  C42      1.0000 0.29816  0.02456  0.49267  Biso   1.000  C
  H15      1.0000 0.24252  0.00462  0.52649  Biso   1.000  H
  H16      1.0000 0.33628  0.95056  0.48776  Biso   1.000  H
  C43      1.0000 0.41195  0.13665  0.49467  Biso   1.000  C
  C44      1.0000 0.34362  0.11218  0.53620  Biso   1.000  C
  H17      1.0000 0.44000  0.19069  0.52152  Biso   1.000  H
  H18      1.0000 0.39851  0.16086  0.44374  Biso   1.000  H
  H19      1.0000 0.44371  0.07498  0.49058  Biso   1.000  H
  H20      1.0000 0.31185  0.17384  0.54028  Biso   1.000  H
  H21      1.0000 0.35706  0.08797  0.58713  Biso   1.000  H
  O16      1.0000 0.23353  0.62147  0.83312  Biso   1.000  O
  C45      1.0000 0.28424  0.56088  0.88053  Biso   1.000  C
  H22      1.0000 0.25654  0.48022  0.89280  Biso   1.000  H
  H23      1.0000 0.34241  0.54918  0.84895  Biso   1.000  H
  C46      1.0000 0.33249  0.71853  0.94335  Biso   1.000  C
  C47      1.0000 0.29847  0.61947  0.95842  Biso   1.000  C
  H24      1.0000 0.34128  0.75467  0.99139  Biso   1.000  H
  H25      1.0000 0.29834  0.75935  0.91141  Biso   1.000  H
  H26      1.0000 0.38096  0.70876  0.91702  Biso   1.000  H
  H27      1.0000 0.25000  0.62924  0.98473  Biso   1.000  H
  H28      1.0000 0.33262  0.57865  0.99037  Biso   1.000  H
  H29      1.0000 0.16979  0.92144  0.51047  Biso   1.000  H
  H30      1.0000 0.22557  0.61086  0.67786  Biso   1.000  H
  O17      1.0000 0.23345  0.62183  0.08592  Biso   1.000  O
  C48      1.0000 0.18879  0.69058  0.13335  Biso   1.000  C
  H31      1.0000 0.12696  0.69716  0.10865  Biso   1.000  H
  H32      1.0000 0.18610  0.65770  0.19548  Biso   1.000  H
  C49      1.0000 0.30312  0.79315  0.16496  Biso   1.000  C
  C50      1.0000 0.22718  0.80123  0.13461  Biso   1.000  C
  H33      1.0000 0.32679  0.86140  0.16574  Biso   1.000  H
  H34      1.0000 0.33320  0.74683  0.13300  Biso   1.000  H
  H35      1.0000 0.30086  0.76575  0.21673  Biso   1.000  H
  H36      1.0000 0.22944  0.82862  0.08284  Biso   1.000  H
  H37      1.0000 0.19709  0.84756  0.16656  Biso   1.000  H
  H38      1.0000 0.22564  0.61095  0.93072  Biso   1.000  H
  O18      1.0000 0.84214  0.35304  0.47706  Biso   1.000  O
  C51      1.0000 0.88958  0.41356  0.52785  Biso   1.000  C
  H39      1.0000 0.90186  0.49427  0.50026  Biso   1.000  H
  H40      1.0000 0.85800  0.42515  0.58603  Biso   1.000  H
  C52      1.0000 0.95235  0.25585  0.57587  Biso   1.000  C
  C53      1.0000 0.96745  0.35497  0.54198  Biso   1.000  C
  H41      1.0000 0.00039  0.21971  0.58459  Biso   1.000  H
  H42      1.0000 0.92039  0.21508  0.54166  Biso   1.000  H
  H43      1.0000 0.92604  0.26552  0.62435  Biso   1.000  H
  H44      1.0000 0.99375  0.34530  0.49349  Biso   1.000  H
  H45      1.0000 0.99941  0.39574  0.57618  Biso   1.000  H
  O19      1.0000 0.03542  0.35321  0.83289  Biso   1.000  O
  C54      1.0000 0.99109  0.29310  0.77912  Biso   1.000  C
  H46      1.0000 0.98837  0.33667  0.72069  Biso   1.000  H
  H47      1.0000 0.01981  0.21225  0.77040  Biso   1.000  H
  C55      1.0000 0.91089  0.22427  0.88289  Biso   1.000  C
  C56      1.0000 0.90754  0.27779  0.81112  Biso   1.000  C
  H48      1.0000 0.85935  0.21483  0.90262  Biso   1.000  H
  H49      1.0000 0.94075  0.26477  0.91911  Biso   1.000  H
  H50      1.0000 0.93482  0.15691  0.87561  Biso   1.000  H
  H51      1.0000 0.88362  0.34516  0.81840  Biso   1.000  H
  H52      1.0000 0.87767  0.23731  0.77490  Biso   1.000  H
  H53      1.0000 0.43403  0.36357  0.46920  Biso   1.000  H
  O20      1.0000 0.68035  0.35283  0.47693  Biso   1.000  O
  C57      1.0000 0.63292  0.28415  0.43215  Biso   1.000  C
  H54      1.0000 0.62063  0.32180  0.37271  Biso   1.000  H
  H55      1.0000 0.66449  0.20529  0.42342  Biso   1.000  H
  C58      1.0000 0.57016  0.21855  0.54832  Biso   1.000  C
  C59      1.0000 0.55505  0.26480  0.47532  Biso   1.000  C
  H56      1.0000 0.52213  0.20661  0.57495  Biso   1.000  H
  H57      1.0000 0.60212  0.26482  0.57849  Biso   1.000  H
  H58      1.0000 0.59647  0.15284  0.54104  Biso   1.000  H
  H59      1.0000 0.52875  0.33052  0.48261  Biso   1.000  H
  H60      1.0000 0.52309  0.21855  0.44515  Biso   1.000  H
  O21      1.0000 0.58917  0.35299  0.47717  Biso   1.000  O
  C60      1.0000 0.56916  0.37609  0.55543  Biso   1.000  C
  H61      1.0000 0.54664  0.46111  0.55950  Biso   1.000  H
  H62      1.0000 0.52158  0.31898  0.57589  Biso   1.000  H
  C61      1.0000 0.66967  0.25920  0.60279  Biso   1.000  C
  C62      1.0000 0.64201  0.36362  0.60780  Biso   1.000  C
  H63      1.0000 0.71460  0.25150  0.63510  Biso   1.000  H
  H64      1.0000 0.68315  0.24363  0.55007  Biso   1.000  H
  H65      1.0000 0.63001  0.21162  0.61984  Biso   1.000  H
  H66      1.0000 0.68167  0.41120  0.59074  Biso   1.000  H
  H67      1.0000 0.62854  0.37920  0.66052  Biso   1.000  H
  O22      1.0000 0.03548  0.35331  0.08574  Biso   1.000  O
  C63      1.0000 0.99116  0.29320  0.03197  Biso   1.000  C
  H68      1.0000 0.98843  0.33677  0.97354  Biso   1.000  H
  H69      1.0000 0.01988  0.21235  0.02325  Biso   1.000  H
  C64      1.0000 0.91096  0.22436  0.13574  Biso   1.000  C
  C65      1.0000 0.90761  0.27788  0.06397  Biso   1.000  C
  H70      1.0000 0.85943  0.21491  0.15547  Biso   1.000  H
  H71      1.0000 0.94083  0.26486  0.17196  Biso   1.000  H
  H72      1.0000 0.93490  0.15699  0.12846  Biso   1.000  H
  H73      1.0000 0.88368  0.34525  0.07125  Biso   1.000  H
  H74      1.0000 0.87774  0.23740  0.02775  Biso   1.000  H
  H75      1.0000 0.68685  0.61092  0.28733  Biso   1.000  H
  H76      1.0000 0.04333  0.36391  0.67783  Biso   1.000  H
