20
Lattice="7.853667 0.0 0.0 0.0 7.815719 0.0 0.0 0.0 6.330296" Origin="12.111761 -2.176844 -3.162958" Properties=species:S:1:pos:R:3
Cu 16.03838 1.731181 1.317341
Cu 16.038782 1.730823 -1.312961
C 13.601639 1.841854 0.001796
C 15.845179 -0.700764 0.002473
C 18.475527 1.620178 0.00254
C 16.231987 4.162795 0.001885
O 17.975674 1.61407 -1.109572
O 14.101826 1.847631 -1.110196
O 15.91351 -0.205555 -1.109627
O 16.164014 3.667257 -1.110119
O 15.913172 -0.205253 1.114499
O 14.101488 1.847934 1.113952
O 17.975336 1.614373 1.114576
O 16.163676 3.667559 1.114007
Fr 16.0382 1.731428 3.167338
Fr 16.039066 1.730466 -3.162958
At 12.111761 1.823972 0.001584
At 15.641965 -2.176844 0.002564
At 19.965428 1.638059 0.002686
At 16.435201 5.638875 0.001706
